Circuit: * C:\Users\dagos\EET-HW\DS123-LAB\lab1RequiredFiles\lab0x0EPart1\Procedure2\Zlab_0x0E_part1.2-R2RDAC.asc

Direct Newton iteration for .op point succeeded.
Changing Tseed to 2.97e-009
Changing Tseed to 2.97e-011

Date: Thu Jun 25 21:40:59 2020
Total elapsed time: 6.054 seconds.

tnom = 27
temp = 27
method = modified trap
totiter = 57239
traniter = 57223
tranpoints = 25697
accept = 20745
rejected = 4950
matrix size = 85
fillins = 24
solver = Normal
Thread vector: 41.3/32.0[4] 11.0/19.2[1] 8.7/11.9[1] 0.8/16.0[1]  2592/500
Matrix Compiler1: 3.48 KB object code size  2.7/1.5/[1.0]
Matrix Compiler2: 4.99 KB object code size  1.6/2.2/[1.3]

