Circuit: * C:\Users\dagos\EET-HW\DS123-LAB\lab1RequiredFiles\lab0x0EPart1\Zlab_0x0E_part1.2-BWDAC.asc

Direct Newton iteration for .op point succeeded.
Changing Tseed to 2.97e-009
Changing Tseed to 2.97e-011

Date: Thu Jun 25 20:54:48 2020
Total elapsed time: 1.243 seconds.

tnom = 27
temp = 27
method = modified trap
totiter = 56211
traniter = 56196
tranpoints = 25189
accept = 20248
rejected = 4939
matrix size = 77
fillins = 2
solver = Normal
Thread vector: 12.2/9.0[4] 3.9/2.2[4] 2.5/1.7[4] 0.3/2.2[1]  2592/500
Matrix Compiler1: 1.65 KB object code size  0.7/0.4/[0.4]
Matrix Compiler2: 3.63 KB object code size  0.5/1.1/[0.5]

