Circuit: * C:\Users\dagos\EET-HW\DS123-LAB\lab1RequiredFiles\lab0x0EPart1\Zlab_0x0E_part1.asc

WARNING: Less than two connections to node Q0.  This node is used by A:X1:35.
WARNING: Less than two connections to node Q1.  This node is used by A:X1:36.
WARNING: Less than two connections to node Q2.  This node is used by A:X1:37.
WARNING: Less than two connections to node Q3.  This node is used by A:X1:38.
Direct Newton iteration for .op point succeeded.
Changing Tseed to 2.97e-009
Changing Tseed to 2.97e-011

Date: Thu Jun 25 20:29:50 2020
Total elapsed time: 1.447 seconds.

tnom = 27
temp = 27
method = modified trap
totiter = 50350
traniter = 50343
tranpoints = 22442
accept = 18480
rejected = 3960
matrix size = 68
fillins = 0
solver = Normal
Thread vector: 4.0/2.4[4] 1.9/1.3[4] 0.8/1.0[1] 0.2/0.6[1]  2592/500
Matrix Compiler1: 996 bytes object code size  0.4/0.3/[0.2]
Matrix Compiler2: 2.63 KB object code size  0.3/0.5/[0.2]

